/*--------------------------------*- C++ -*----------------------------------*\
  =========                 |
  \\      /  F ield         | OpenFOAM: The Open Source CFD Toolbox
   \\    /   O peration     | Website:  https://openfoam.org
    \\  /    A nd           | Version:  dev
     \\/     M anipulation  |
\*---------------------------------------------------------------------------*/
FoamFile
{
    version     2.0;
    format      ascii;
    class       volScalarField;
    object      h;
}
// * * * * * * * * * * * * * * * * * * * * * * * * * * * * * * * * * * * * * //

dimensions      [0 2 -2 0 0 0 0];

internalField   uniform 286700;

boundaryField
{
    inlet
    {
        type            fixedValue;
        value           uniform 286700;
    }
    outlet
    {
        type            inletOutlet;
        inletValue      uniform 354105;
        value           uniform 354105;
    }
    wall
    {
        type            zeroGradient;
    }
}

// ************************************************************************* //
