/*--------------------------------*- C++ -*----------------------------------*\
  =========                 |
  \\      /  F ield         | OpenFOAM: The Open Source CFD Toolbox
   \\    /   O peration     | Website:  https://openfoam.org
    \\  /    A nd           | Version:  dev
     \\/     M anipulation  |
\*---------------------------------------------------------------------------*/
FoamFile
{
    version     2.0;
    format      ascii;
    class       volScalarField;
    object      T;
}
// * * * * * * * * * * * * * * * * * * * * * * * * * * * * * * * * * * * * * //

dimensions      [0 0 0 1 0 0 0];

internalField   uniform 312.8;

boundaryField
{
    inlet
    {
        type            fixedValue;
        value           uniform 312.8;
    }
    outlet
    {
        type            inletOutlet;
        inletValue      uniform 272.95;
        value           uniform 272.95;
    }
    wall
    {
        type            zeroGradient;
    }
}

// ************************************************************************* //
