/*--------------------------------*- C++ -*----------------------------------*\
| =========                 |                                                 |
| \\      /  F ield         | OpenFOAM: The Open Source CFD Toolbox           |
|  \\    /   O peration     | Version:  v2306                                 |
|   \\  /    A nd           | Website:  www.openfoam.com                      |
|    \\/     M anipulation  |                                                 |
\*---------------------------------------------------------------------------*/
FoamFile
{
    version     2.0;
    format      ascii;
    class       volVectorField;
    location    "0";
    object      U;
}
// * * * * * * * * * * * * * * * * * * * * * * * * * * * * * * * * * * * * * //

dimensions      [0 1 -1 0 0 0 0];

internalField   uniform (14.5 0 0);

boundaryField
{
    inlet
{
    type            flowRateInletVelocity;
    massFlowRate    constant 0.025; // 0.1 kg/s (requires 'rho' field)
    value           uniform (0 0 0);
}
    outlet
    {
        type            zeroGradient;
        }
    wall
    {
        type            fixedValue;
        value           uniform (0 0 0);
    }
}

