/*--------------------------------*- C++ -*----------------------------------*\
  =========                 |
  \\      /  F ield         | OpenFOAM: The Open Source CFD Toolbox
   \\    /   O peration     | Website:  https://openfoam.org
    \\  /    A nd           | Version:  2412
     \\/     M anipulation  |
\*---------------------------------------------------------------------------*/
FoamFile
{
    format      ascii;
    class       dictionary;
    location    "constant";
    object      transportProperties;
}
// * * * * * * * * * * * * * * * * * * * * * * * * * * * * * * * * * * * * * //


phaseChangeTwoPhaseMixture Lee;

phases          (liquid vapour);

L               L [0 2 -2 0 0 0 0] 200000; // Latent heat  
sigma           sigma [1 0 -2 0 0 0 0] 0.072;   // Surface tension (N/m)

liquid
{
    transportModel  Newtonian; 
    L               L [0 2 -2 0 0 0 0] 219650; // Latent heat
    kappa           kappa [1 1 -3 -1 0 0 0] 0.1;
    rho             rho [1 -3 0 0 0 0 0] 960;
    nu          nu [0 2 -1 0 0 0 0] 1.25e-7; 
    cp              cp [0 2 -2 -1 0 0 0] 2000;
}

vapour
{
    transportModel  Newtonian; 
    kappa           kappa [1 1 -3 -1 0 0 0] 0.01;
    rho             rho [1 -3 0 0 0 0 0] 50;
    nu          nu [0 2 -1 0 0 0 0] 1.79e-7; 
    cp              cp [0 2 -2 -1 0 0 0] 1000;
    R       R       [1 2 -2 -1 -1 0 0] 159.879;
}

phaseChangeDict
{
    r       r [0 0 -1 0 0 0 0] 2;
    a       a [0 0 0 0 0 0 0] 10;  // Phase change coefficient (1/s)
    b       b [0 0 0 1 0 0 0] 2000;           // Saturation temperature coefficient
    c       c [0 0 0 1 0 0 0] 273.15;              // Saturation temperature offset (K)
}
