/*--------------------------------*- C++ -*----------------------------------*\
| =========                 |                                                 |
| \\      /  F ield         | OpenFOAM: The Open Source CFD Toolbox           |
|  \\    /   O peration     | Version:  2412                                 |
|   \\  /    A nd           | Website:  www.openfoam.com                      |
|    \\/     M anipulation  |
\*---------------------------------------------------------------------------*/
FoamFile
{
    version     2412;
    format      ascii;
    class       dictionary;
    location    "system";
    object      fvSolution;
}
// * * * * * * * * * * * * * * * * * * * * * * * * * * * * * * * * * * * * * //

solvers
{
    p_rgh
    {
        solver          GAMG;
        smoother        GaussSeidel;
        tolerance       1e-8; // Tightened from 1e-7
        relTol          0.001; // Tightened from 0.01
        nPreSweeps      0;
        nPostSweeps     3; // Increased from 2
        cacheAgglomeration true;
        nCellsInCoarsestLevel 10;
        agglomerator    faceAreaPair;
        mergeLevels     1;
        maxIter         200; // Increased from 100
    }

    p_rghFinal
    {
        $p_rgh;
        tolerance       1e-8;
        relTol          0.0;
    }

    p
    {
        solver          GAMG;
        smoother        GaussSeidel;
        tolerance       1e-8;
        relTol          0.001;
        nPreSweeps      0;
        nPostSweeps     3;
    }

    pFinal
    {
        $p;
        tolerance       1e-8;
        relTol          0.0;
    }

    U
    {
        solver          PBiCGStab;
        preconditioner  DIC;
        tolerance       1e-8;
        relTol          0.001;
        nSweeps         2; // Increased from 1
        maxIter         200; // Increased from default
    }

    UFinal
    {
        $U;
        tolerance       1e-8;
        relTol          0.0;
    }

    h
    {
        solver          PBiCGStab;
        preconditioner  DILU;
        tolerance       1e-8;
        relTol          0.01;
        nSweeps         2;
    }

    hFinal
    {
        $h;
        tolerance       1e-8;
        relTol          0.0;
    }

    T
    {
        solver          PBiCGStab;
        preconditioner  DILU;
        tolerance       1e-8;
        relTol          0.01;
        nSweeps         2;
    }

    TFinal
    {
        $T;
        tolerance       1e-8;
        relTol          0.0;
    }

    "alpha.liquid.*"
    {
        solver          PBiCGStab;
        preconditioner  DILU;
        tolerance       1e-6;
        relTol          0.01;
        maxIter         1000;
        cAlpha          0.5;
    }

    "alpha.liquidFinal.*"
    {
        $alpha.liquid;
        tolerance       1e-8;
        relTol          0.0;
    }

    k
    {
        solver          PBiCGStab;
        preconditioner  DILU;
        tolerance       1e-8;
        relTol          0.001;
        nSweeps         2; // Increased from 1
    }

    kFinal
    {
        $k;
        tolerance       1e-8;
        relTol          0.0;
    }

    omega
    {
        solver          PBiCGStab;
        preconditioner  DILU;
        tolerance       1e-8;
        relTol          0.001;
        nSweeps         2;
    }

    omegaFinal
    {
        $omega;
        tolerance       1e-8;
        relTol          0.0;
    }
}

PIMPLE
{
    momentumPredictor   yes;
    nOuterCorrectors    4; // Increased from 3
    nCorrectors         3; // Increased from 2
    nNonOrthogonalCorrectors 2; // Increased from 1
    pRefCell            0;
    pRefValue           1e6;
    residualControl
    {
        p_rgh           { tolerance 1e-7; relTol 0.0; } // Tightened from 1e-6
        U               { tolerance 1e-7; relTol 0.0; }
        h               { tolerance 1e-7; relTol 0.0; }
        alpha.liquid    { tolerance 1e-7; relTol 0.0; }
        k               { tolerance 1e-7; relTol 0.0; }
        omega           { tolerance 1e-7; relTol 0.0; }
    }
}

relaxationFactors
{
    fields
    {
        p_rgh           0.6; // Reduced from 0.7
        p_rghFinal      1.0;
        alpha.liquid    0.4; // Reduced from 0.5
    }
    equations
    {
        U               0.4; // Reduced from 0.5
        h               0.6; // Reduced from 0.7
        T               0.6; // Reduced from 0.7
        k               0.6; // Reduced from 0.7
        omega           0.6; // Reduced from 0.7
        alpha.liquid    0.2; // Reduced from 0.3
    }
}

// ************************************************************************* //
